165
Dy_L9_L25_DMF_DMF.pdb
C          2.62400        0.61600        0.86600
C          1.70400       -0.45000        0.23100
C          2.02100       -0.81400       -1.26300
O          1.19600       -0.08400       -2.21500
C          1.47700        1.25400       -2.35100
C          0.77800        2.21400       -1.58000
C          1.12900        3.58200       -1.63200
C          2.17200        4.01700       -2.47400
C          2.80300        3.07800       -3.30800
C          2.45500        1.73200       -3.25300
C          3.23700        1.13300       -4.19300
N          3.03300       -0.02500       -4.72300
C          3.72700       -0.61100       -5.69500
C          3.24900       -1.58800       -6.55700
C          1.97700       -2.17300       -6.64400
C          1.73000       -3.09000       -7.67900
C          2.75200       -3.42400       -8.59000
C          4.08500       -2.87100       -8.51300
C          4.25600       -1.88700       -7.47400
C          5.30300       -1.00700       -7.18200
N          4.96700       -0.27500       -6.09700
Dy         6.14900        1.37900       -5.20700
N          4.15100        1.98600       -4.54700
C          3.82300        3.18900       -4.21400
N          4.40900        4.30900       -4.58800
C          5.51600        4.47500       -5.29400
N          6.41300        3.49700       -5.55700
C          7.41600        3.96500       -6.32400
N          8.34200        3.22200       -6.89900
C          8.17300        2.03600       -7.42500
N          7.31300        1.15000       -7.03600
C          7.26200        0.15300       -7.86800
N          6.38500       -0.79700       -7.93200
C          8.24800        0.33900       -8.78300
C          8.86700        1.55100       -8.49700
C          9.93000        2.04800       -9.29400
C         10.24400        1.30300      -10.45900
C          9.61900        0.07300      -10.75000
C          8.61100       -0.41800       -9.90500
O         10.57500        3.24600       -9.04600
C         11.91400        3.26800       -8.45900
C         11.88600        3.16000       -6.90300
C         11.48400        4.47300       -6.19000
C         12.98800        2.32400       -9.10100
C         13.50000        2.82500      -10.47500
C          7.21200        5.33000       -6.48800
C          5.98200        5.64400       -5.90400
C          5.45000        6.95000       -6.01900
C          6.28500        7.96000       -6.55400
C          7.54300        7.64400       -7.11100
C          7.99700        6.31100       -7.12400
O          4.17300        7.27900       -5.64500
C          3.13300        7.07000       -6.64800
C          1.77600        7.42100       -5.95800
C          1.45400        6.59500       -4.69900
C          3.26700        7.92600       -7.96200
C          4.08400        7.29700       -9.11800
O          8.24700        1.51400       -4.58400
C          9.43300        1.10000       -4.56000
N         10.20000        0.98800       -3.42700
C          9.63100        1.22500       -2.12800
C         11.57800        0.58800       -3.58200
O          4.94100        2.08900       -7.00100
C          3.92900        2.10800       -7.73800
N          3.95300        2.42500       -9.07100
C          5.15400        2.85400       -9.74600
C          2.73900        2.24800       -9.82400
N          6.23800        1.77000       -2.96400
C          6.06500        0.67300       -2.27300
C          6.18500       -0.53000       -2.92800
N          6.69600       -0.52000       -4.12800
C          7.26100       -1.60300       -4.65200
C          7.08900       -2.81200       -4.08000
C          6.33100       -2.89200       -2.94900
C          5.87200       -1.76500       -2.36900
C          5.87100        0.77700       -0.89800
C          5.89300        1.98700       -0.30600
C          6.14100        3.10000       -1.04600
C          6.34100        2.95800       -2.37100
O          5.12000       -3.27500       -9.43500
C          5.95700       -4.48100       -9.01100
C          5.17900       -5.73800       -8.41900
C          4.86900       -5.67000       -6.90300
C          6.84200       -5.03100      -10.21300
C          7.78200       -3.97800      -10.82600
C          1.77900       -2.33800       -1.49100
C          2.03600       -2.84800       -2.92700
H          2.56500        0.54700        1.95200
H          3.65300        0.44500        0.54700
H          2.30500        1.60900        0.54700
H          1.88500       -1.36000        0.80300
H          0.71100       -0.00000        0.22200
H          3.03900       -0.49900       -1.49500
H         -0.04200        1.89700       -0.93700
H          0.59200        4.30500       -1.01800
H          2.48400        5.06200       -2.48000
H          1.19800       -1.92100       -5.92400
H          0.74300       -3.54200       -7.77500
H          2.50400       -4.13400       -9.37900
H         10.99000        1.68800      -11.15400
H          9.91600       -0.49800      -11.63000
H          8.11900       -1.36700      -10.11600
H         12.18900        4.27600       -8.76800
H         11.10000        2.44400       -6.66500
H         12.91400        2.96300       -6.59800
H         11.52900        4.32800       -5.11100
H         12.17200        5.26800       -6.47900
H         10.47000        4.74700       -6.47900
H         13.85100        2.35000       -8.43600
H         12.48200        1.38000       -9.30000
H         13.73600        1.97000      -11.10800
H         12.72900        3.42800      -10.95200
H         14.39600        3.42800      -10.33000
H          5.95400        8.99800       -6.53800
H          8.16600        8.43200       -7.53200
H          8.93300        6.04500       -7.61500
H          3.26900        6.02500       -6.92600
H          1.87600        8.45000       -5.61100
H          1.00000        7.16300       -6.67900
H          1.51500        5.53300       -4.93600
H          2.17200        6.83400       -3.91400
H          0.44800        6.83400       -4.35500
H          2.25400        8.02100       -8.35400
H          3.82600        8.81700       -7.67600
H          4.03400        6.21000       -9.04800
H          3.66900        7.61900      -10.07300
H          5.12300        7.61900       -9.04600
H          9.80600        0.83100       -5.54900
H          9.42000        0.27100       -1.64500
H         10.33700        1.79200       -1.52000
H          8.70600        1.79200       -2.23500
H         12.03100        0.45600       -2.59900
H         11.62400       -0.35200       -4.13200
H         12.12000        1.35700       -4.13200
H          3.01300        1.84300       -7.21000
H          5.90900        3.12400       -9.00700
H          5.52900        2.04300      -10.37000
H          4.93100        3.71900      -10.37000
H          1.90100        2.12600       -9.13700
H          2.56900        3.12300      -10.45200
H          2.82700        1.36200      -10.45200
H          7.86800       -1.49900       -5.55200
H          7.54900       -3.69800       -4.51900
H          6.09200       -3.85900       -2.50700
H          5.26200       -1.84900       -1.47000
H          5.69900       -0.10200       -0.27700
H          5.71200        2.06500        0.76600
H          6.17900        4.08700       -0.58600
H          6.59100        3.82800       -2.97800
H          6.52500       -4.01300       -8.20700
H          4.20400       -5.74600       -8.90500
H          5.85100       -6.58900       -8.53000
H          4.78800       -6.68000       -6.50300
H          5.67300       -5.14000       -6.39100
H          3.92900       -5.14000       -6.74800
H          7.50000       -5.79000       -9.79000
H          6.14800       -5.29500      -11.01100
H          8.27600       -3.42400      -10.02800
H          8.53100       -4.47500      -11.44200
H          7.20300       -3.29000      -11.44200
H          2.51400       -2.84800       -0.86900
H          0.71400       -2.49500       -1.31700
H          2.03700       -3.93800       -2.93100
H          1.25100       -2.48300       -3.58900
H          3.00300       -2.48300       -3.27500
