233
Dy_L9_L2.pdb
C          8.25900        1.07000       -8.78500
C          6.77400        0.56300       -8.68000
O          6.03800        1.07800       -9.80500
C          4.72600        0.68700       -9.81800
C          3.76300        1.45600       -9.12200
C          2.42300        1.03300       -9.16300
C          2.03100       -0.06400       -9.89600
C          2.96500       -0.83400      -10.61300
C          4.33000       -0.46300      -10.55400
O          5.27700       -1.24500      -11.16100
C          5.46500       -0.96400      -12.56000
C          6.54900       -1.91200      -13.10500
C          0.69700       -0.19100       -9.65900
N          0.01800       -1.16000      -10.14300
C         -1.22900       -1.44700       -9.87700
N         -2.00400       -0.78700       -8.98400
Dy        -1.86800        1.29300       -8.00600
N          0.25900        0.73300       -8.84100
C          1.29500        1.44600       -8.53200
N          1.28300        2.33800       -7.60600
C          0.88200        1.91300       -6.43800
C          1.68500        1.78300       -5.31700
C          2.99800        2.19500       -5.04300
C          3.59400        1.76600       -3.83500
O          4.86600        2.16600       -3.52400
C          5.90300        1.42800       -4.20100
C          7.26800        1.98100       -3.75200
C          2.86900        0.94100       -2.93300
C          1.52700        0.58300       -3.21600
C          0.96000        1.01200       -4.42900
C         -0.26300        0.75900       -5.04300
N         -1.20700        0.01300       -4.53200
C         -2.18200       -0.52300       -5.17400
N         -2.52600       -0.27900       -6.39900
C         -3.52600       -1.09600       -6.63500
N         -3.83200       -1.64500       -7.74800
C         -3.08200       -1.58700       -8.81400
C         -3.09600       -2.62800       -9.72700
C         -1.87500       -2.57500      -10.36900
C         -1.46300       -3.61000      -11.22600
C         -2.32200       -4.72000      -11.39600
O         -1.90500       -5.79200      -12.13400
C         -1.28400       -6.80800      -11.31700
C         -0.95200       -8.01900      -12.20200
C         -3.60600       -4.73800      -10.78600
C         -3.99600       -3.68600       -9.93200
O         -4.45300       -5.79900      -10.94900
C         -5.24600       -5.72100      -12.14800
C         -6.16800       -6.95100      -12.21600
C         -4.02000       -1.64900       -5.50400
C         -3.02100       -1.42400       -4.58400
C         -2.98800       -2.13100       -3.36700
C         -3.99800       -3.09300       -3.12500
C         -5.09200       -3.22500       -4.02400
C         -5.10700       -2.49800       -5.23300
O         -6.07400       -4.15100       -3.80300
C         -7.07900       -3.73700       -2.86100
C         -8.07200       -4.90000       -2.68800
O         -3.87900       -3.94500       -2.05700
C         -3.23900       -5.18300       -2.44700
C         -3.13500       -6.13900       -1.24700
N         -0.31700        1.30700       -6.27600
O          3.50700        0.42400       -1.83700
C          3.23200        1.10300       -0.60000
C          4.04400        0.42400        0.51900
N         -3.97300        1.83300       -7.12100
C         -5.15000        1.54000       -7.57400
N         -5.46300        1.14200       -8.76100
C         -4.71400        1.24500       -9.82700
N         -3.36700        1.28500       -9.77200
C         -2.95800        1.33200      -11.06100
N         -1.70000        1.47900      -11.39300
C         -1.05700        2.47000      -10.88700
N         -1.15000        2.80500       -9.63900
C         -0.63100        3.99900       -9.55400
N         -0.57700        4.73400       -8.51200
C         -1.05700        4.46300       -7.32900
N         -1.77500        3.36400       -7.00600
C         -2.26100        3.62600       -5.76900
N         -3.36000        3.10200       -5.26900
C         -4.16100        2.32900       -5.90800
C         -5.44100        2.12600       -5.47000
C         -6.09300        1.67000       -6.60300
C         -7.48500        1.46200       -6.61800
C         -8.22600        1.84400       -5.48400
C         -7.56500        2.34900       -4.34600
C         -6.15000        2.41000       -4.27400
O         -5.55600        2.80500       -3.09300
C         -5.37000        1.80200       -2.04500
C         -4.07600        0.96900       -2.29200
C         -2.77200        1.73100       -1.96000
C         -6.61100        0.91400       -1.67200
C         -7.71900        1.68300       -0.90600
C         -1.60600        4.71600       -5.20500
C         -0.88500        5.29900       -6.23500
C         -0.21800        6.53400       -6.09100
C         -0.22300        7.11100       -4.79600
C         -0.91100        6.49700       -3.72700
C         -1.64500        5.31000       -3.93200
O          0.27900        7.13200       -7.22900
C          1.52600        7.86600       -7.22700
C          2.73500        6.91200       -7.47300
C          3.05600        5.97800       -6.28400
C          1.42800        8.95000       -8.34400
C          0.19100        9.87300       -8.22300
C         -0.11500        4.40700      -10.74100
C         -0.31800        3.35800      -11.61200
C          0.18300        3.39300      -12.93200
C          0.76000        4.60700      -13.38000
C          0.92300        5.70100      -12.50100
C          0.50100        5.60100      -11.16000
O          0.13500        2.30700      -13.76700
C          1.22200        1.35000      -13.61300
C          0.84900        0.10200      -14.47000
C         -0.44300       -0.62000      -14.02100
C          2.61900        1.92400      -14.04200
C          3.45100        2.53600      -12.88700
C         -4.03500        1.36400      -11.93500
C         -5.17200        1.33500      -11.14400
C         -6.46100        1.42800      -11.71600
C         -6.53500        1.56600      -13.13000
C         -5.37300        1.57100      -13.93000
C         -4.10300        1.46900      -13.33400
O         -7.52800        1.47600      -10.84900
C         -8.84400        1.02700      -11.25800
C         -9.23400       -0.22000      -10.41800
C         -8.24500       -1.39600      -10.58900
C         -9.84200        2.20100      -11.04000
C         -9.44600        3.50900      -11.76200
H          8.66700        1.20800       -7.78400
H          8.85700        0.33300       -9.32200
H          8.28300        2.01800       -9.32200
H          6.76800       -0.52000       -8.80100
H          6.31600        1.01600       -7.80100
H          4.04600        2.35200       -8.56800
H          2.64000       -1.69500      -11.19700
H          4.52100       -1.21400      -13.04300
H          5.85000        0.05500      -12.60900
H          7.07900       -2.37600      -12.27300
H          6.08100       -2.68500      -13.71500
H          7.25400       -1.34600      -13.71500
H          3.53700        2.82900       -5.74600
H          5.82000        0.40100       -3.84400
H          5.78100        1.64800       -5.26200
H          7.31200        1.99900       -2.66300
H          8.06300        1.34300       -4.13800
H          7.39400        2.99300       -4.13800
H          0.94300       -0.01200       -2.51400
H         -0.50500       -3.55300      -11.74400
H         -0.34500       -6.37700      -10.96900
H         -2.04200       -7.11500      -10.59700
H         -0.71600       -8.87600      -11.57100
H         -1.81000       -8.25500      -12.83100
H         -0.09300       -7.78400      -12.83100
H         -4.97000       -3.69000       -9.44300
H         -5.87100       -4.83600      -12.03100
H         -4.53800       -5.78300      -12.97500
H         -6.41400       -7.27800      -11.20600
H         -7.08400       -6.68900      -12.74600
H         -5.66000       -7.75700      -12.74600
H         -2.20500       -1.93900       -2.63400
H         -5.93400       -2.58900       -5.93800
H         -6.56000       -3.58800       -1.91500
H         -7.60600       -2.90600       -3.33100
H         -8.23100       -5.08700       -1.62600
H         -9.02100       -4.64100       -3.15800
H         -7.66700       -5.79700       -3.15800
H         -3.91000       -5.64100       -3.17500
H         -2.22600       -4.90800       -2.73800
H         -3.16500       -7.17000       -1.60000
H         -2.19600       -5.96200       -0.72300
H         -3.96900       -5.96200       -0.56800
H          3.61100        2.11700       -0.72800
H          2.17300        0.93800       -0.40000
H          3.97000       -0.65800        0.41700
H          5.08900        0.72600        0.44400
H          3.64800        0.72600        1.48900
H         -7.97600        1.01900       -7.48400
H         -9.31200        1.74700       -5.48700
H         -8.16100        2.70000       -3.50400
H         -5.24600        2.46800       -1.19100
H         -4.11700        0.13500       -1.59200
H         -4.04100        0.77800       -3.36500
H         -2.65700        1.79900       -0.87800
H         -1.92100        1.19800       -2.38400
H         -2.82000        2.73400       -2.38400
H         -7.06400        0.61300       -2.61600
H         -6.24500        0.15900       -0.97700
H         -7.56100        1.57400        0.16700
H         -7.67900        2.73900       -1.17300
H         -8.69400        1.27700       -1.17300
H          0.31300        8.04400       -4.62000
H         -0.87600        6.94300       -2.73300
H         -2.22800        4.86300       -3.12700
H          1.62600        8.30500       -6.23400
H          2.43500        6.25500       -8.28900
H          3.60700        7.55600       -7.58400
H          2.97000        4.94000       -6.60300
H          4.07200        6.16800       -5.93700
H          2.35300        6.16800       -5.47200
H          2.29300        9.59900       -8.20700
H          1.29800        8.40500       -9.27900
H         -0.03500       10.04200       -7.17000
H          0.40000       10.82700       -8.70600
H         -0.66400        9.40000       -8.70600
H          1.08500        4.70000      -14.41700
H          1.37600        6.62500      -12.85800
H          0.64700        6.42600      -10.46300
H          1.26700        1.14000      -12.54500
H          0.63900        0.48000      -15.47100
H          1.65400       -0.61600      -14.31700
H         -0.48500       -0.64400      -12.93200
H         -1.31100       -0.08600      -14.40700
H         -0.44200       -1.64000      -14.40700
H          3.19800        1.06900      -14.39300
H          2.40800        2.75300      -14.71700
H          3.88400        1.73600      -12.28700
H          4.25000        3.15200      -13.30100
H          2.80500        3.15200      -12.26100
H         -7.50600        1.67000      -13.61200
H         -5.45800        1.65300      -15.01400
H         -3.19700        1.47000      -13.93900
H         -8.79100        0.75700      -12.31300
H         -9.16200        0.08300       -9.37400
H        -10.18600       -0.57000      -10.81900
H         -7.94000       -1.75900       -9.60700
H         -8.73000       -2.20200      -11.13900
H         -7.36800       -1.05600      -11.13900
H        -10.77900        1.88400      -11.49800
H         -9.80500        2.43000       -9.97500
H         -9.21300        4.27600      -11.02300
H         -8.57000        3.32900      -12.38600
H        -10.27400        3.84500      -12.38600
