113
Dy_L10_L19_L21.pdb
Cl        -2.28100        1.62500      -13.31600
C         -1.56000        1.16200      -11.85600
C         -0.44800        1.86500      -11.36700
C          0.16200        1.47300      -10.16300
C         -0.29000        0.34500       -9.36200
C         -1.45700       -0.31800       -9.92600
C         -2.07200        0.07900      -11.12600
C          0.39300       -0.10300       -8.09800
C          0.51500        0.82200       -7.02600
C          0.04100        2.14100       -6.87700
C          0.55200        2.68100       -5.78200
C          1.34800        1.78300       -5.17600
N          1.19300        0.69400       -5.84600
Dy         2.02800       -1.13800       -5.26800
N          1.41600       -2.20200       -6.98600
C          0.88500       -1.51700       -8.06100
C          0.86900       -2.52700       -9.07100
C          1.21200       -3.74700       -8.51300
C          1.46600       -3.53800       -7.15900
C          1.66000       -4.50000       -6.13700
C          2.08000       -4.21000       -4.87100
N          2.44500       -3.04600       -4.41300
C          3.13200       -3.17200       -3.32600
C          2.94500       -4.43700       -2.91500
C          2.28300       -5.07500       -3.86400
C          3.96100       -2.22600       -2.71300
C          3.90000       -0.87400       -2.89000
N          3.13200       -0.21300       -3.74300
C          3.08000        1.09700       -3.52700
C          2.25900        2.01400       -4.12600
C          2.37300        3.34600       -3.70500
C          1.64400        3.81600       -2.58800
C          1.70600        5.17400       -2.22100
C          2.50000        6.07600       -2.95900
C          3.25000        5.60900       -4.05500
C          3.19400        4.25100       -4.42000
Cl         2.54800        7.71500       -2.52900
C          4.04700        1.32000       -2.58200
C          4.59300        0.10000       -2.22600
C          4.99400       -2.74600       -1.91100
C          4.98700       -2.62300       -0.50200
C          6.04000       -3.15600        0.26700
C          7.10700       -3.83300       -0.35600
C          7.11200       -3.97800       -1.75600
C          6.06800       -3.43700       -2.52600
Cl         8.37900       -4.46500        0.56700
C          1.35000       -5.82900       -6.45500
C         -0.00200       -6.23200       -6.55500
C         -0.33900       -7.56800       -6.83000
C          0.67500       -8.52800       -7.00800
C          2.02700       -8.13800       -6.92900
C          2.36200       -6.79800       -6.65700
Cl         0.26500      -10.14100       -7.31900
O          0.73000       -0.66000       -3.33800
C          0.32400       -1.81400       -2.59700
C         -0.92400       -2.44400       -3.26000
C         -0.80600       -2.63800       -4.79000
O         -0.33300       -1.42900       -5.39300
C         -2.14600       -3.04100       -5.46300
F         -2.56000       -4.28700       -5.05800
F         -3.15400       -2.14400       -5.19000
F         -1.99300       -3.08300       -6.82800
C          0.06600       -1.41200       -1.11600
C         -0.10200       -2.60000       -0.14000
C          0.42200       -2.06400        1.20400
C          0.98800       -0.67800        0.84600
O          1.17800       -0.68300       -0.57700
O          4.20700       -1.97000       -5.76000
C          4.42100       -2.34200       -7.12700
C          4.76600       -1.08400       -7.95500
C          3.74700        0.06000       -7.75500
O          3.58400        0.30400       -6.35500
C          4.17200        1.38600       -8.44000
F          4.26100        1.23900       -9.80300
F          5.37600        1.85200       -7.96300
F          3.23400        2.35900       -8.20100
C          5.50300       -3.44800       -7.19600
F          5.14500       -4.49300       -6.38100
F          6.73400       -2.99400       -6.78000
F          5.62100       -3.95100       -8.47000
H         -0.05600        2.71600      -11.92400
H          1.01600        2.06700       -9.83800
H         -1.90200       -1.17100       -9.41400
H         -2.94900       -0.45500      -11.49100
H         -0.64200        2.68100       -7.53300
H          0.35100        3.69600       -5.43700
H          0.62800       -2.38600      -10.12500
H          1.27100       -4.69800       -9.04300
H          3.27500       -4.87400       -1.97200
H          1.96500       -6.11600       -3.82300
H          1.03000        3.12800       -2.00800
H          1.13800        5.52900       -1.36100
H          3.87500        6.29900       -4.62300
H          3.79100        3.89800       -5.26100
H          4.33100        2.29400       -2.18500
H          5.42400       -0.06500       -1.54100
H          4.16200       -2.11300       -0.00400
H          6.02900       -3.04400        1.35100
H          7.92800       -4.51000       -2.24500
H          6.09100       -3.55600       -3.60900
H         -0.79800       -5.50000       -6.41700
H         -1.38600       -7.86000       -6.90700
H          2.81500       -8.87600       -7.07900
H          3.41200       -6.50900       -6.60200
H         -1.81200       -2.72900       -2.69600
H         -0.82000       -0.77700       -1.14200
H         -1.16900       -2.79500       -0.02800
H          0.56600       -3.39800       -0.46400
H         -0.43300       -1.91900        1.86500
H          1.25200       -2.69700        1.51800
H          0.22500        0.07300        1.05200
H          1.98000       -0.58300        1.28800
H          5.63500       -1.01200       -8.60900
