51
Dy_L18_L20_L20_MeO_O.pdb
C          1.07100       -0.86300       -0.09100
O         -0.26500       -0.78800        0.40600
Dy        -0.69700        0.89700        1.89200
O          0.40400        1.88400        0.22000
O         -1.92600       -0.87300        2.59100
C         -3.14700       -0.42300        3.18300
C         -4.25100       -1.47700        2.98000
C         -2.92600       -0.03600        4.66400
C         -1.66300        0.82900        4.86500
O         -1.51800        1.78600        3.82100
C         -1.63600        1.55300        6.22400
O         -2.43800        0.53900        0.48500
C         -2.43300        1.51800       -0.54500
C         -3.04900        0.92500       -1.82500
C         -3.12600        2.80900       -0.06500
C         -2.81100        3.12000        1.42100
O         -1.39700        3.07100        1.63800
C         -3.43100        4.43700        1.94600
F         -4.79800        4.41600        1.81400
F         -2.93100        5.53700        1.29300
F         -3.15400        4.56900        3.28400
O          0.63800       -0.68800        2.83200
C          1.17500       -0.30300        4.09300
C          1.53500       -1.56800        4.89700
C          2.35900        0.67400        3.93800
C          2.15400        1.69400        2.78900
O          0.84300        2.25700        2.84300
C          3.20600        2.83100        2.75000
F          4.48800        2.33800        2.70100
F          3.08900        3.66700        3.83500
F          3.01100        3.57800        1.61400
H          1.76900       -0.90300        0.74600
H          1.18300       -1.76100       -0.69900
H          1.28300        0.01600       -0.69900
H         -0.05300        2.09600       -0.59700
H          1.33500        2.09600        0.31800
H         -4.61000       -1.81900        3.95100
H         -5.07700       -1.03500        2.42300
H         -3.84800       -2.32300        2.42300
H         -3.58700       -0.33900        5.47600
H         -1.62100        0.81800        7.02800
H         -0.74500        2.17800        6.28500
H         -2.52500        2.17800        6.32000
H         -3.02200       -0.16400       -1.77000
H         -4.08200        1.25900       -1.91900
H         -2.47800        1.25900       -2.69100
H         -3.76200        3.42700       -0.69800
H          1.47300       -1.35100        5.96300
H          0.83800       -2.36800        4.64800
H          2.55000       -1.88000        4.64800
H          3.24600        0.64600        4.57200
