445
Gd_L6_O_O_O_O.pdb
C          0.72700        1.67400        2.34000
C          0.00400        0.73700        1.34300
C          0.77100        0.55000        0.00800
C          0.08100       -0.42600       -0.98900
C          0.95000       -0.65400       -2.25700
C          0.32700       -1.62000       -3.30000
C          1.25100       -1.84500       -4.53000
C          0.66000       -2.84200       -5.56500
C          1.59300       -3.13500       -6.77500
C          1.06900       -4.30700       -7.66100
C          1.74800       -4.41800       -9.05500
C          1.17200       -5.55400       -9.93900
O          1.59700       -5.36900      -11.30800
C          1.02700       -6.25700      -12.30600
C          1.88300       -6.16400      -13.59900
O          3.25300       -6.57100      -13.37800
C          3.99900       -6.53100      -14.53200
C          3.97100       -7.62300      -15.43500
C          4.70900       -7.52500      -16.62900
C          5.40100       -6.37700      -16.95500
C          5.47300       -5.29300      -16.06300
C          4.82100       -5.40600      -14.81400
O          5.03400       -4.42000      -13.88800
C          6.03400       -4.78500      -12.90700
C          6.50300       -3.55600      -12.07600
O          5.37600       -2.89900      -11.45000
C          4.72500       -1.85000      -12.20200
C          3.29000       -1.66500      -11.64300
C          2.29100       -1.16500      -12.71900
C          0.83100       -1.05300      -12.21100
C         -0.19000       -0.81300      -13.35900
C         -1.63800       -0.63300      -12.83800
C         -2.67800       -0.41000      -13.96900
C         -4.10500       -0.21000      -13.39500
C         -5.15400        0.11600      -14.49000
C         -6.56100        0.38900      -13.89600
C         -7.57900        0.82200      -14.98100
C         -8.96500        1.16100      -14.39400
C          7.49100       -3.99800      -10.96500
C          6.00900       -6.63800      -18.14300
N          6.75300       -5.79000      -18.75100
C          7.48900       -6.01100      -19.81800
N          7.65300       -7.21400      -20.41700
Gd         6.55400       -9.16500      -20.25200
N          5.79900       -7.87600      -18.50300
C          5.01900       -8.40700      -17.61700
N          4.76900       -9.67500      -17.57400
C          5.83200      -10.43500      -17.47100
C          6.22300      -11.15200      -16.35000
C          5.55000      -11.50300      -15.17200
C          6.30000      -12.09400      -14.13200
O          5.62400      -12.51600      -13.02600
C          5.55900      -11.57600      -11.94300
C          4.82900      -12.25000      -10.74300
O          5.63900      -13.22800      -10.04100
C          5.88200      -14.48800      -10.70600
C          6.82900      -15.39100       -9.87200
C          7.30700      -16.63200      -10.67900
C          8.49400      -17.40500      -10.03900
C          9.08300      -18.45700      -11.02000
C         10.32800      -19.20500      -10.47400
C         10.92200      -20.17700      -11.53000
C         12.14200      -20.98200      -11.01000
C         12.69200      -21.97100      -12.07600
C         13.85400      -22.84800      -11.53900
C         14.36200      -23.87700      -12.58400
C         15.46400      -24.79800      -12.01600
C          4.41300      -11.17700       -9.70800
C          7.70700      -12.27000      -14.25400
C          8.33500      -11.99500      -15.49600
C          7.56300      -11.44200      -16.53200
C          7.89000      -11.00000      -17.80800
N          9.06700      -11.10200      -18.36400
C          9.48900      -10.43000      -19.37900
N          8.80000       -9.64400      -20.13900
C          9.64300       -9.15400      -21.01700
N          9.56700       -8.01100      -21.59000
C          8.71800       -7.07100      -21.23900
C          9.11100       -5.74600      -21.31100
C          8.37800       -5.08200      -20.34400
C          8.71600       -3.77500      -19.95700
C          9.86100       -3.18400      -20.54000
O         10.34000       -2.03600      -19.97400
C         11.51300       -2.25900      -19.15100
C         12.03500       -0.93400      -18.51700
O         12.56800        0.02100      -19.47400
C         11.60900        0.56300      -20.40300
C         12.13600        1.74500      -21.24900
C         11.00200        2.28600      -22.16800
C         11.46700        2.90800      -23.51300
C         10.24200        3.14800      -24.43600
C         10.56700        3.75700      -25.82400
C          9.27700        3.84000      -26.68400
C          9.46000        4.54000      -28.05500
C          8.10900        4.61800      -28.81700
C          8.19700        5.39400      -30.15500
C          6.81100        5.51600      -30.84300
C          6.85800        6.34600      -32.14300
C         13.16200       -1.23400      -17.49800
C         10.52500       -3.81800      -21.62600
C         10.16100       -5.12600      -22.00500
O         11.59300       -3.23900      -22.25200
C         11.26000       -2.46500      -23.41900
C         12.55500       -2.07300      -24.18600
O         13.45600       -1.27000      -23.38600
C         14.42900       -1.98600      -22.59400
C         15.29300       -0.97500      -21.80300
C         16.14900       -1.64000      -20.68600
C         16.47300       -0.67700      -19.51100
C         17.07400       -1.42600      -18.29300
C         17.28000       -0.51300      -17.05400
C         17.53500       -1.34600      -15.77200
C         18.05500       -0.51600      -14.57000
C         18.40500       -1.42500      -13.35900
C         19.31700       -0.74000      -12.30800
C         19.67900       -1.70500      -11.14800
C         20.69500       -1.10400      -10.15300
C         12.21700       -1.24100      -25.44600
C         10.84600       -9.79300      -20.97400
C         10.78200      -10.48500      -19.78300
C         11.94200      -10.96300      -19.15300
C         13.18600      -10.69500      -19.76300
C         13.24300      -10.15000      -21.07600
C         12.05700       -9.67000      -21.68500
O         14.44700       -9.96600      -21.70900
C         14.99600      -11.15500      -22.31500
C         16.37800      -10.84200      -22.95700
O         17.36700      -10.48700      -21.95800
C         17.54400       -9.07600      -21.71600
C         18.70000       -8.83700      -20.71300
C         18.74900       -7.36300      -20.23100
C         19.94900       -7.03600      -19.30000
C         19.80700       -5.61400      -18.69400
C         21.00400       -5.16000      -17.81600
C         20.80000       -3.70000      -17.32900
C         21.90500       -3.16000      -16.38300
C         21.71700       -1.64400      -16.09800
C         22.73300       -1.05100      -15.08600
C         22.58500        0.49100      -14.95000
C         23.53900        1.10600      -13.90300
C         16.94900      -12.06500      -23.71500
O         14.31100      -10.88700      -19.00700
C         14.80800       -9.65000      -18.42800
C         15.90000       -9.89700      -17.34400
O         17.11900      -10.50800      -17.83500
C         16.97700      -11.83800      -18.36600
C         18.32400      -12.58100      -18.49300
C         18.11000      -14.03800      -19.01900
C         18.97100      -14.42200      -20.25300
C         18.45400      -15.72600      -20.92100
C         19.33900      -16.22900      -22.09000
C         18.68800      -17.44200      -22.80900
C         19.59700      -18.07900      -23.89000
C         18.90400      -19.28200      -24.58600
C         19.81700      -19.99600      -25.61600
C         19.11400      -21.20400      -26.28900
C         20.04600      -21.97500      -27.25000
C         16.31300       -8.56800      -16.66300
N          6.83800      -10.37200      -18.36900
O          8.42900      -12.54400      -13.11900
C          9.36200      -13.64000      -13.10000
C         10.39800      -13.39200      -11.96600
O          9.73500      -13.17400      -10.69700
C          9.59900      -11.80200      -10.26200
C          8.71800      -11.77700       -8.99300
C          8.28000      -10.35300       -8.54900
C          7.41100      -10.38400       -7.25800
C          6.71000       -9.03500       -6.93000
C          5.78600       -9.13300       -5.68300
C          4.96600       -7.84400       -5.41100
C          4.06000       -7.96500       -4.15200
C          3.20800       -6.68300       -3.93600
C          2.37800       -6.71900       -2.62400
C          1.47800       -5.46500       -2.45200
C          0.82100       -5.40000       -1.05500
C         11.34900      -14.60100      -11.78900
O          4.42900       -8.46200      -20.62000
O          5.12800      -10.91000      -20.31700
O          6.25500       -8.35600      -22.34100
O          7.15500      -10.68800      -21.81800
C         -0.45500       -5.90300      -12.63300
H          0.49200        1.37000        3.36000
H          1.80400        1.61200        2.18100
H          0.39500        2.70000        2.18100
H         -0.01800       -0.24500        1.81600
H         -0.92900        1.23800        1.08400
H          0.76300        1.52600       -0.47700
H          1.71900        0.08200        0.27500
H          0.01900       -1.39000       -0.48300
H         -0.82800        0.07200       -1.32600
H          1.01000        0.31500       -2.75200
H          1.85900       -1.14400       -1.90800
H          0.24200       -2.58600       -2.80300
H         -0.56600       -1.12000       -3.67800
H          1.31100       -0.88400       -5.04100
H          2.15600       -2.31500       -4.14400
H          0.55500       -3.79000       -5.03600
H         -0.21900       -2.35000       -5.98200
H          1.56500       -2.24400       -7.40100
H          2.53900       -3.47400       -6.35200
H          1.33500       -5.22100       -7.13100
H          0.02200       -4.07900       -7.86300
H          1.51600       -3.48900       -9.57600
H          2.78600       -4.69000       -8.86100
H          1.62600       -6.49200       -9.61800
H          0.08800       -5.45000       -9.95400
H          1.06900       -7.24400      -11.84600
H          1.48600       -6.89100      -14.30800
H          1.94500       -5.11100      -13.87600
H          3.39400       -8.52000      -15.21600
H          6.02000       -4.38900      -16.33200
H          5.52500       -5.46700      -12.22700
H          6.88700       -5.13200      -13.49000
H          6.94700       -2.81400      -12.73900
H          5.29100       -0.94200      -11.99500
H          4.64700       -2.22200      -13.22400
H          2.94900       -2.65800      -11.35200
H          3.35600       -0.87100      -10.89900
H          2.59900       -0.14800      -12.96400
H          2.27800       -1.93200      -13.49400
H          0.58500       -2.02600      -11.78600
H          0.79800       -0.16100      -11.58600
H          0.08500        0.13700      -13.81700
H         -0.19600       -1.72500      -13.95600
H         -1.90500       -1.57900      -12.36600
H         -1.63200        0.28600      -12.25100
H         -2.40900        0.52800      -14.45400
H         -2.70700       -1.33400      -14.54700
H         -4.39900       -1.17100      -12.97400
H         -4.05200        0.67200      -12.75600
H         -4.83200        1.05100      -14.94900
H         -5.24900       -0.78500      -15.09600
H         -6.91700       -0.56500      -13.50700
H         -6.44800        1.24200      -13.22700
H         -7.19600        1.75100      -15.40300
H         -7.72800       -0.04700      -15.62200
H         -8.91200        1.14800      -13.30500
H         -9.27000        2.15100      -14.73100
H         -9.69300        0.42200      -14.73100
H          7.52800       -5.08600      -10.92300
H          8.48500       -3.60800      -11.18600
H          7.15400       -3.60800      -10.00400
H          4.48000      -11.32200      -15.07000
H          6.59400      -11.39100      -11.65400
H          4.93900      -10.75500      -12.30400
H          3.99200      -12.82100      -11.14500
H          4.91000      -14.97900      -10.74800
H          6.40200      -14.22700      -11.62800
H          7.71900      -14.79400       -9.67200
H          6.23200      -15.77400       -9.04500
H          6.46700      -17.32700      -10.67500
H          7.68600      -16.24200      -11.62400
H          9.28100      -16.67100       -9.86700
H          8.07900      -17.96500       -9.20100
H          8.31000      -19.21700      -11.14000
H          9.43200      -17.89400      -11.88500
H         11.08800      -18.44500      -10.29500
H          9.97500      -19.82600       -9.65000
H         10.14300      -20.91300      -11.73200
H         11.30100      -19.54900      -12.33600
H         12.93400      -20.25400      -10.83400
H         11.77300      -21.59600      -10.18800
H         11.87500      -22.65700      -12.30100
H         13.12000      -21.35500      -12.86700
H         14.68500      -22.16700      -11.35600
H         13.43600      -23.43200      -10.71900
H         13.51500      -24.52400      -12.81200
H         14.83400      -23.29700      -13.37800
H         15.43300      -24.77200      -10.92600
H         15.29700      -25.81900      -12.36000
H         16.43900      -24.45400      -12.36000
H          4.56400      -11.56600       -8.70100
H          5.02000      -10.28300       -9.84700
H          3.36100      -10.92700       -9.84700
H          9.39300      -12.20500      -15.65100
H          8.11100       -3.23700      -19.22800
H         11.16900       -2.89900      -18.33800
H         12.27700       -2.61700      -19.84000
H         11.17300       -0.42700      -18.08300
H         11.40800       -0.25800      -21.09200
H         10.81100        0.95200      -19.77100
H         12.38200        2.54300      -20.54800
H         12.90700        1.33900      -21.90400
H         10.40900        1.41400      -22.44300
H         10.54300        3.10500      -21.61400
H         11.87900        3.89000      -23.27800
H         12.08800        2.16000      -24.00600
H          9.83200        2.15900      -24.64000
H          9.63400        3.89500      -23.92500
H         10.89200        4.78200      -25.64700
H         11.23200        3.05300      -26.32500
H          9.00900        2.80900      -26.91400
H          8.58800        4.47100      -26.12200
H          9.75500        5.56700      -27.84000
H         10.11200        3.89700      -28.64500
H          7.85500        3.59200      -29.08400
H          7.43900        5.19700      -28.18100
H          8.50300        6.40900      -29.90000
H          8.81600        4.78900      -30.81800
H          6.53100        4.50600      -31.14200
H          6.17800        6.07500      -30.15300
H          6.89000        5.67500      -33.00200
H          5.97000        6.97400      -32.20600
H          7.74900        6.97400      -32.14100
H         12.77300       -1.13000      -16.48500
H         13.52400       -2.25100      -17.64600
H         13.98200       -0.53100      -17.64600
H         10.67700       -5.64400      -22.81300
H         10.68200       -3.13700      -24.05400
H         10.80500       -1.55100      -23.03700
H         13.09500       -2.99200      -24.41100
H         13.85100       -2.56700      -21.87500
H         15.07600       -2.49300      -23.31000
H         16.00200       -0.56300      -22.52200
H         14.59000       -0.31700      -21.29300
H         15.53000       -2.43100      -20.26400
H         17.10700       -1.88400      -21.14600
H         17.25400       -0.00700      -19.87100
H         15.51800       -0.27100      -19.17700
H         16.33000       -2.16600      -18.00000
H         18.07000       -1.74600      -18.60000
H         18.19300        0.05300      -17.23800
H         16.33700        0.01100      -16.89700
H         16.56100       -1.72900      -15.46900
H         18.33800       -2.03900      -16.02400
H         18.99200       -0.06100      -14.89400
H         17.22500        0.11500      -14.25100
H         17.46100       -1.62200      -12.85000
H         18.98900       -2.25200      -13.76500
H         20.25200       -0.50900      -12.81800
H         18.72500        0.06200      -11.86700
H         18.76000       -1.85400      -10.58100
H         20.18000       -2.55600      -11.60800
H         20.36400       -1.30000       -9.13300
H         21.67200       -1.56100      -10.31200
H         20.76600       -0.02800      -10.31200
H         11.99500       -1.91300      -26.27600
H         11.34900       -0.61300      -25.24500
H         13.06900       -0.61300      -25.70600
H         11.87800      -11.52300      -18.22000
H         12.07600       -9.21700      -22.67700
H         15.16000      -11.84900      -21.49100
H         14.30500      -11.41500      -23.11700
H         16.24600       -9.97500      -23.60500
H         17.84400       -8.65500      -22.67600
H         16.61900       -8.74700      -21.24200
H         18.47000       -9.43900      -19.83400
H         19.62400       -9.01000      -21.26500
H         18.89800       -6.76400      -21.13000
H         17.85500       -7.22100      -19.62400
H         19.89400       -7.73400      -18.46600
H         20.83600       -7.01400      -19.93400
H         19.79100       -4.93300      -19.54500
H         18.95200       -5.66700      -18.02100
H         20.99300       -5.78900      -16.92600
H         21.88000       -5.15100      -18.46500
H         20.85500       -3.08300      -18.22500
H         19.88700       -3.71600      -16.73300
H         21.77000       -3.67200      -15.43000
H         22.84600       -3.25700      -16.92500
H         21.91300       -1.13800      -17.04400
H         20.74000       -1.55100      -15.62300
H         22.47500       -1.47000      -14.11400
H         23.72200       -1.22600      -15.51000
H         22.88800        0.90900      -15.91000
H         21.57800        0.66500      -14.57300
H         23.17800        0.87300      -12.90100
H         24.53900        0.69200      -14.03400
H         23.57400        2.18700      -14.03400
H         17.29500      -12.80800      -22.99700
H         16.17000      -12.50100      -24.34100
H         17.78300      -11.74800      -24.34100
H         15.28400       -9.12600      -19.25700
H         13.94600       -9.21000      -17.92800
H         15.48500      -10.63600      -16.65900
H         16.38100      -12.37100      -17.62500
H         16.58900      -11.69400      -19.37500
H         18.89300      -12.05200      -19.25800
H         18.72100      -12.66800      -17.48200
H         18.44400      -14.69500      -18.21600
H         17.07600      -14.08000      -19.36200
H         18.83200      -13.62600      -20.98500
H         19.96900      -14.64600      -19.87400
H         18.51200      -16.49700      -20.15300
H         17.49200      -15.47100      -21.36600
H         19.37200      -15.42000      -22.82000
H         20.26200      -16.59600      -21.64100
H         18.55400      -18.20700      -22.04400
H         17.82300      -17.04600      -23.34100
H         19.73700      -17.31900      -24.65900
H         20.46100      -18.48500      -23.36300
H         18.70900      -20.01200      -23.80000
H         18.07600      -18.86300      -25.15800
H         20.00300      -19.27200      -26.40900
H         20.65100      -20.40700      -25.04700
H         18.87000      -21.90000      -25.48600
H         18.32100      -20.78800      -26.90900
H         20.75800      -22.56300      -26.67200
H         19.45100      -22.63800      -27.87800
H         20.58500      -21.26600      -27.87800
H         16.27600       -8.68800      -15.58000
H         17.32700       -8.30500      -16.96500
H         15.62800       -7.77600      -16.96500
H          8.77400      -14.52000      -12.83900
H          9.88500      -13.59700      -14.05500
H         10.94800      -12.47900      -12.19400
H         10.60200      -11.47600       -9.98500
H          9.06000      -11.28900      -11.05900
H          7.80100      -12.30100       -9.26100
H          9.34900      -12.15800       -8.19000
H          9.19500       -9.82100       -8.28800
H          7.63500       -9.97300       -9.34200
H          6.60800      -11.09400       -7.45800
H          8.10500      -10.56300       -6.43700
H          7.50400       -8.33700       -6.66500
H          6.05600       -8.82000       -7.77600
H          5.05400       -9.90800       -5.91300
H          6.45100       -9.24900       -4.82700
H          5.69500       -7.06500       -5.18600
H          4.29200       -7.73100       -6.26000
H          3.35500       -8.77000       -4.35800
H          4.73200       -8.03400       -3.29700
H          3.91900       -5.86500       -3.81900
H          2.48300       -6.66300       -4.74900
H          1.70100       -7.56700       -2.71800
H          3.10100       -6.68600       -1.80800
H          2.14100       -4.60300       -2.51400
H          0.66000       -5.57700       -3.16500
H          0.64800       -6.41100       -0.68800
H          1.48100       -4.87100       -0.36800
H         -0.13000       -4.87100       -1.12500
H         11.50000      -14.79300      -10.72700
H         10.90900      -15.48100      -12.25900
H         12.30800      -14.38000      -12.25900
H          4.24100       -7.52400      -20.69800
H          3.71800       -9.10200      -20.69800
H          4.18100      -10.75600      -20.33100
H          5.46900      -11.80800      -20.33100
H          5.36800       -8.18400      -22.66700
H          7.01400       -8.18400      -22.90200
H          6.50900      -11.31600      -22.15000
H          8.05600      -10.70500      -22.15000
H         -1.01100       -5.77000      -11.70400
H         -0.48900       -4.98000      -13.21200
H         -0.90300       -6.71100      -13.21200
